.subckt pc clk reset pcsel[2:0] jt[31:0] offset[31:0] ia[31:0] pc_next[31:0]
*XAdr (vdd 0#27 vdd 0#3)
*IllOp (vdd 0#28 vdd 0#2)
Xmuxa pcsel[2]#32 pc_next[31:0] vdd 0#27 vdd 0#3 i[31:0] mux2
Xmuxb pcsel[1]#32 pcsel[0]#32 i[31:0] jt[31:0] offset[31:0] vdd 0#28 vdd 0#2 ia_next[31:0] mux4

Xpcn reset#32 ia_next[31:0] vdd 0#31 a[31:0] mux2

Xpc a[31:0] clk#32 ia[31:0] dreg

*add four to pc
Xpc_add 0 ia[31:0] 0#29 vdd 0#2 pc_next[31:0] pc_z pc_v pc_n adder32
.ends
